<?xml version="1.0" encoding="UTF-8"?>

<!-- generated on 2024-04-10 18:20:34.780935 by randomTrips.py v1_19_0+0000-baa66a0f364
<configuration>
    <net-file value=".\70\custom_70.net.xml"/>
    <route-file value=".\70\custom_70.routes.xml"/>
    <length value="True"/>
    <end value="800.0"/>
    <period value="2.0"/>
</configuration>
-->

<routes xmlns:xsi="http://www.w3.org/2001/XMLSchema-instance" xsi:noNamespaceSchemaLocation="http://sumo.dlr.de/xsd/routes_file.xsd">
    <trip id="0" depart="0.00" from="ce" to="-ab"/>
    <trip id="1" depart="2.00" from="-fh" to="-de"/>
    <trip id="2" depart="4.00" from="de" to="de"/>
    <trip id="3" depart="6.00" from="hi" to="-cd"/>
    <trip id="4" depart="8.00" from="-ib" to="-ab"/>
    <trip id="5" depart="10.00" from="-ef" to="cd"/>
    <trip id="6" depart="12.00" from="-bc" to="-de"/>
    <trip id="7" depart="14.00" from="ce" to="cd"/>
    <trip id="8" depart="16.00" from="-ef" to="ce"/>
    <trip id="9" depart="18.00" from="ef" to="-ab"/>
    <trip id="10" depart="20.00" from="ef" to="de"/>
    <trip id="11" depart="22.00" from="-hi" to="-de"/>
    <trip id="12" depart="24.00" from="hi" to="-hi"/>
    <trip id="13" depart="26.00" from="-cd" to="-cd"/>
    <trip id="14" depart="28.00" from="fh" to="ce"/>
    <trip id="15" depart="30.00" from="ef" to="de"/>
    <trip id="16" depart="32.00" from="cd" to="ib"/>
    <trip id="17" depart="34.00" from="-hi" to="cd"/>
    <trip id="18" depart="36.00" from="fh" to="ce"/>
    <trip id="19" depart="38.00" from="hi" to="ce"/>
    <trip id="20" depart="40.00" from="de" to="-bc"/>
    <trip id="21" depart="42.00" from="-fg" to="-fh"/>
    <trip id="22" depart="44.00" from="-cd" to="-ef"/>
    <trip id="23" depart="46.00" from="-cd" to="-fh"/>
    <trip id="24" depart="48.00" from="ce" to="-hi"/>
    <trip id="25" depart="50.00" from="-hi" to="-de"/>
    <trip id="26" depart="52.00" from="-fg" to="hi"/>
    <trip id="27" depart="54.00" from="ce" to="ce"/>
    <trip id="28" depart="56.00" from="-de" to="de"/>
    <trip id="29" depart="58.00" from="-de" to="-hi"/>
    <trip id="30" depart="60.00" from="ib" to="ce"/>
    <trip id="31" depart="62.00" from="cd" to="de"/>
    <trip id="32" depart="64.00" from="fh" to="fg"/>
    <trip id="33" depart="66.00" from="-fg" to="-ab"/>
    <trip id="34" depart="68.00" from="-hi" to="-fh"/>
    <trip id="35" depart="70.00" from="-ef" to="hi"/>
    <trip id="36" depart="72.00" from="hi" to="-hi"/>
    <trip id="37" depart="74.00" from="ce" to="-hi"/>
    <trip id="38" depart="76.00" from="hi" to="bc"/>
    <trip id="39" depart="78.00" from="-fg" to="-ef"/>
    <trip id="40" depart="80.00" from="cd" to="-ef"/>
    <trip id="41" depart="82.00" from="cd" to="hi"/>
    <trip id="42" depart="84.00" from="-hi" to="-de"/>
    <trip id="43" depart="86.00" from="ib" to="cd"/>
    <trip id="44" depart="88.00" from="-cd" to="-bc"/>
    <trip id="45" depart="90.00" from="-de" to="ce"/>
    <trip id="46" depart="92.00" from="ef" to="-ib"/>
    <trip id="47" depart="94.00" from="-cd" to="-hi"/>
    <trip id="48" depart="96.00" from="ib" to="cd"/>
    <trip id="49" depart="98.00" from="ib" to="hi"/>
    <trip id="50" depart="100.00" from="-bc" to="de"/>
    <trip id="51" depart="102.00" from="ce" to="cd"/>
    <trip id="52" depart="104.00" from="-fg" to="ce"/>
    <trip id="53" depart="106.00" from="-de" to="-ib"/>
    <trip id="54" depart="108.00" from="ab" to="hi"/>
    <trip id="55" depart="110.00" from="hi" to="-ef"/>
    <trip id="56" depart="112.00" from="bc" to="-de"/>
    <trip id="57" depart="114.00" from="hi" to="hi"/>
    <trip id="58" depart="116.00" from="-fh" to="ce"/>
    <trip id="59" depart="118.00" from="ce" to="-de"/>
    <trip id="60" depart="120.00" from="de" to="cd"/>
    <trip id="61" depart="122.00" from="de" to="cd"/>
    <trip id="62" depart="124.00" from="-bc" to="-hi"/>
    <trip id="63" depart="126.00" from="-bc" to="hi"/>
    <trip id="64" depart="128.00" from="hi" to="fh"/>
    <trip id="65" depart="130.00" from="-fh" to="-bc"/>
    <trip id="66" depart="132.00" from="hi" to="hi"/>
    <trip id="67" depart="134.00" from="-cd" to="bc"/>
    <trip id="68" depart="136.00" from="-cd" to="ef"/>
    <trip id="69" depart="138.00" from="de" to="-cd"/>
    <trip id="70" depart="140.00" from="ab" to="cd"/>
    <trip id="71" depart="142.00" from="-fg" to="hi"/>
    <trip id="72" depart="144.00" from="-ib" to="-de"/>
    <trip id="73" depart="146.00" from="cd" to="de"/>
    <trip id="74" depart="148.00" from="-ef" to="-hi"/>
    <trip id="75" depart="150.00" from="ib" to="ce"/>
    <trip id="76" depart="152.00" from="-ib" to="cd"/>
    <trip id="77" depart="154.00" from="-de" to="-de"/>
    <trip id="78" depart="156.00" from="-hi" to="ce"/>
    <trip id="79" depart="158.00" from="-fg" to="-de"/>
    <trip id="80" depart="160.00" from="-cd" to="ce"/>
    <trip id="81" depart="162.00" from="-fg" to="hi"/>
    <trip id="82" depart="164.00" from="hi" to="-bc"/>
    <trip id="83" depart="166.00" from="-fg" to="de"/>
    <trip id="84" depart="168.00" from="-ef" to="-cd"/>
    <trip id="85" depart="170.00" from="hi" to="ce"/>
    <trip id="86" depart="172.00" from="ab" to="fg"/>
    <trip id="87" depart="174.00" from="ef" to="-de"/>
    <trip id="88" depart="176.00" from="-cd" to="-ib"/>
    <trip id="89" depart="178.00" from="-ib" to="bc"/>
    <trip id="90" depart="180.00" from="de" to="de"/>
    <trip id="91" depart="182.00" from="ib" to="-cd"/>
    <trip id="92" depart="184.00" from="-hi" to="-hi"/>
    <trip id="93" depart="186.00" from="hi" to="-ef"/>
    <trip id="94" depart="188.00" from="-ef" to="-ib"/>
    <trip id="95" depart="190.00" from="-ib" to="-fh"/>
    <trip id="96" depart="192.00" from="-fg" to="hi"/>
    <trip id="97" depart="194.00" from="-ib" to="hi"/>
    <trip id="98" depart="196.00" from="cd" to="-bc"/>
    <trip id="99" depart="198.00" from="ib" to="fh"/>
    <trip id="100" depart="200.00" from="ib" to="hi"/>
    <trip id="101" depart="202.00" from="fh" to="-de"/>
    <trip id="102" depart="204.00" from="ab" to="-de"/>
    <trip id="103" depart="206.00" from="-hi" to="-bc"/>
    <trip id="104" depart="208.00" from="-hi" to="ib"/>
    <trip id="105" depart="210.00" from="-fg" to="fg"/>
    <trip id="106" depart="212.00" from="ab" to="-ib"/>
    <trip id="107" depart="214.00" from="hi" to="ib"/>
    <trip id="108" depart="216.00" from="cd" to="de"/>
    <trip id="109" depart="218.00" from="-de" to="-fh"/>
    <trip id="110" depart="220.00" from="ib" to="ce"/>
    <trip id="111" depart="222.00" from="cd" to="ef"/>
    <trip id="112" depart="224.00" from="-cd" to="ce"/>
    <trip id="113" depart="226.00" from="bc" to="fh"/>
    <trip id="114" depart="228.00" from="-de" to="ib"/>
    <trip id="115" depart="230.00" from="-cd" to="-de"/>
    <trip id="116" depart="232.00" from="cd" to="de"/>
    <trip id="117" depart="234.00" from="-fg" to="-cd"/>
    <trip id="118" depart="236.00" from="hi" to="-ef"/>
    <trip id="119" depart="238.00" from="cd" to="ce"/>
    <trip id="120" depart="240.00" from="-ib" to="ce"/>
    <trip id="121" depart="242.00" from="bc" to="hi"/>
    <trip id="122" depart="244.00" from="-ef" to="de"/>
    <trip id="123" depart="246.00" from="-fg" to="-hi"/>
    <trip id="124" depart="248.00" from="ce" to="-fh"/>
    <trip id="125" depart="250.00" from="-hi" to="ef"/>
    <trip id="126" depart="252.00" from="-cd" to="bc"/>
    <trip id="127" depart="254.00" from="ib" to="ib"/>
    <trip id="128" depart="256.00" from="-cd" to="-de"/>
    <trip id="129" depart="258.00" from="-fg" to="hi"/>
    <trip id="130" depart="260.00" from="hi" to="hi"/>
    <trip id="131" depart="262.00" from="-hi" to="-de"/>
    <trip id="132" depart="264.00" from="fh" to="de"/>
    <trip id="133" depart="266.00" from="ce" to="ib"/>
    <trip id="134" depart="268.00" from="ce" to="-ab"/>
    <trip id="135" depart="270.00" from="fh" to="-fh"/>
    <trip id="136" depart="272.00" from="ce" to="hi"/>
    <trip id="137" depart="274.00" from="-de" to="-cd"/>
    <trip id="138" depart="276.00" from="-cd" to="cd"/>
    <trip id="139" depart="278.00" from="-fh" to="ce"/>
    <trip id="140" depart="280.00" from="de" to="-de"/>
    <trip id="141" depart="282.00" from="ce" to="-ef"/>
    <trip id="142" depart="284.00" from="ab" to="hi"/>
    <trip id="143" depart="286.00" from="fh" to="-cd"/>
    <trip id="144" depart="288.00" from="-ib" to="-fh"/>
    <trip id="145" depart="290.00" from="-bc" to="ef"/>
    <trip id="146" depart="292.00" from="ce" to="-ef"/>
    <trip id="147" depart="294.00" from="de" to="cd"/>
    <trip id="148" depart="296.00" from="-ib" to="-ab"/>
    <trip id="149" depart="298.00" from="-cd" to="hi"/>
    <trip id="150" depart="300.00" from="hi" to="cd"/>
    <trip id="151" depart="302.00" from="fh" to="ce"/>
    <trip id="152" depart="304.00" from="-de" to="-cd"/>
    <trip id="153" depart="306.00" from="-hi" to="hi"/>
    <trip id="154" depart="308.00" from="ef" to="hi"/>
    <trip id="155" depart="310.00" from="hi" to="-de"/>
    <trip id="156" depart="312.00" from="-fg" to="-cd"/>
    <trip id="157" depart="314.00" from="ef" to="hi"/>
    <trip id="158" depart="316.00" from="-hi" to="ce"/>
    <trip id="159" depart="318.00" from="-de" to="hi"/>
    <trip id="160" depart="320.00" from="hi" to="ib"/>
    <trip id="161" depart="322.00" from="ef" to="hi"/>
    <trip id="162" depart="324.00" from="-bc" to="de"/>
    <trip id="163" depart="326.00" from="-hi" to="hi"/>
    <trip id="164" depart="328.00" from="ef" to="hi"/>
    <trip id="165" depart="330.00" from="ef" to="-ef"/>
    <trip id="166" depart="332.00" from="ef" to="-cd"/>
    <trip id="167" depart="334.00" from="hi" to="hi"/>
    <trip id="168" depart="336.00" from="-ef" to="fh"/>
    <trip id="169" depart="338.00" from="ab" to="-fh"/>
    <trip id="170" depart="340.00" from="ef" to="-de"/>
    <trip id="171" depart="342.00" from="-bc" to="-de"/>
    <trip id="172" depart="344.00" from="-hi" to="hi"/>
    <trip id="173" depart="346.00" from="ib" to="-fh"/>
    <trip id="174" depart="348.00" from="ce" to="-hi"/>
    <trip id="175" depart="350.00" from="ib" to="cd"/>
    <trip id="176" depart="352.00" from="hi" to="-cd"/>
    <trip id="177" depart="354.00" from="ib" to="-de"/>
    <trip id="178" depart="356.00" from="ib" to="-ef"/>
    <trip id="179" depart="358.00" from="-cd" to="-ib"/>
    <trip id="180" depart="360.00" from="de" to="-hi"/>
    <trip id="181" depart="362.00" from="ce" to="cd"/>
    <trip id="182" depart="364.00" from="-hi" to="ce"/>
    <trip id="183" depart="366.00" from="-fg" to="de"/>
    <trip id="184" depart="368.00" from="-bc" to="hi"/>
    <trip id="185" depart="370.00" from="cd" to="de"/>
    <trip id="186" depart="372.00" from="de" to="de"/>
    <trip id="187" depart="374.00" from="-hi" to="-bc"/>
    <trip id="188" depart="376.00" from="ce" to="-hi"/>
    <trip id="189" depart="378.00" from="-hi" to="fh"/>
    <trip id="190" depart="380.00" from="de" to="-fh"/>
    <trip id="191" depart="382.00" from="-hi" to="-hi"/>
    <trip id="192" depart="384.00" from="-hi" to="-fh"/>
    <trip id="193" depart="386.00" from="-de" to="-ib"/>
    <trip id="194" depart="388.00" from="hi" to="de"/>
    <trip id="195" depart="390.00" from="hi" to="ce"/>
    <trip id="196" depart="392.00" from="-fh" to="cd"/>
    <trip id="197" depart="394.00" from="-bc" to="-fh"/>
    <trip id="198" depart="396.00" from="-ib" to="ce"/>
    <trip id="199" depart="398.00" from="ce" to="bc"/>
    <trip id="200" depart="400.00" from="-ib" to="-de"/>
    <trip id="201" depart="402.00" from="ab" to="hi"/>
    <trip id="202" depart="404.00" from="ef" to="-de"/>
    <trip id="203" depart="406.00" from="-cd" to="cd"/>
    <trip id="204" depart="408.00" from="ce" to="-hi"/>
    <trip id="205" depart="410.00" from="fh" to="ef"/>
    <trip id="206" depart="412.00" from="ce" to="-de"/>
    <trip id="207" depart="414.00" from="-ef" to="-ab"/>
    <trip id="208" depart="416.00" from="-fg" to="bc"/>
    <trip id="209" depart="418.00" from="fh" to="-bc"/>
    <trip id="210" depart="420.00" from="-ib" to="ce"/>
    <trip id="211" depart="422.00" from="-ef" to="de"/>
    <trip id="212" depart="424.00" from="ab" to="-ef"/>
    <trip id="213" depart="426.00" from="ce" to="-ab"/>
    <trip id="214" depart="428.00" from="de" to="ef"/>
    <trip id="215" depart="430.00" from="-cd" to="-ib"/>
    <trip id="216" depart="432.00" from="-de" to="hi"/>
    <trip id="217" depart="434.00" from="bc" to="-bc"/>
    <trip id="218" depart="436.00" from="-fg" to="fh"/>
    <trip id="219" depart="438.00" from="ab" to="fg"/>
    <trip id="220" depart="440.00" from="ce" to="ib"/>
    <trip id="221" depart="442.00" from="cd" to="hi"/>
    <trip id="222" depart="444.00" from="hi" to="ce"/>
    <trip id="223" depart="446.00" from="de" to="cd"/>
    <trip id="224" depart="448.00" from="fh" to="cd"/>
    <trip id="225" depart="450.00" from="hi" to="ef"/>
    <trip id="226" depart="452.00" from="ab" to="-ef"/>
    <trip id="227" depart="454.00" from="-fg" to="ce"/>
    <trip id="228" depart="456.00" from="de" to="cd"/>
    <trip id="229" depart="458.00" from="ce" to="-fh"/>
    <trip id="230" depart="460.00" from="-cd" to="-fh"/>
    <trip id="231" depart="462.00" from="-fh" to="-hi"/>
    <trip id="232" depart="464.00" from="cd" to="-cd"/>
    <trip id="233" depart="466.00" from="-fg" to="de"/>
    <trip id="234" depart="468.00" from="de" to="-bc"/>
    <trip id="235" depart="470.00" from="-hi" to="cd"/>
    <trip id="236" depart="472.00" from="-ib" to="-de"/>
    <trip id="237" depart="474.00" from="-ib" to="hi"/>
    <trip id="238" depart="476.00" from="cd" to="de"/>
    <trip id="239" depart="478.00" from="hi" to="ef"/>
    <trip id="240" depart="480.00" from="-hi" to="-ab"/>
    <trip id="241" depart="482.00" from="-hi" to="ef"/>
    <trip id="242" depart="484.00" from="fh" to="hi"/>
    <trip id="243" depart="486.00" from="-ib" to="ef"/>
    <trip id="244" depart="488.00" from="cd" to="ce"/>
    <trip id="245" depart="490.00" from="-ef" to="-de"/>
    <trip id="246" depart="492.00" from="-ib" to="-ab"/>
    <trip id="247" depart="494.00" from="-hi" to="de"/>
    <trip id="248" depart="496.00" from="-hi" to="-de"/>
    <trip id="249" depart="498.00" from="ab" to="-cd"/>
    <trip id="250" depart="500.00" from="ce" to="-ab"/>
    <trip id="251" depart="502.00" from="-hi" to="ce"/>
    <trip id="252" depart="504.00" from="-bc" to="ce"/>
    <trip id="253" depart="506.00" from="-de" to="bc"/>
    <trip id="254" depart="508.00" from="-cd" to="-hi"/>
    <trip id="255" depart="510.00" from="-ef" to="-hi"/>
    <trip id="256" depart="512.00" from="de" to="-hi"/>
    <trip id="257" depart="514.00" from="de" to="fh"/>
    <trip id="258" depart="516.00" from="-fg" to="-cd"/>
    <trip id="259" depart="518.00" from="-bc" to="cd"/>
    <trip id="260" depart="520.00" from="ib" to="-hi"/>
    <trip id="261" depart="522.00" from="ce" to="fg"/>
    <trip id="262" depart="524.00" from="ce" to="ef"/>
    <trip id="263" depart="526.00" from="hi" to="-de"/>
    <trip id="264" depart="528.00" from="-bc" to="-de"/>
    <trip id="265" depart="530.00" from="-de" to="de"/>
    <trip id="266" depart="532.00" from="cd" to="-de"/>
    <trip id="267" depart="534.00" from="de" to="ef"/>
    <trip id="268" depart="536.00" from="-de" to="ce"/>
    <trip id="269" depart="538.00" from="de" to="-cd"/>
    <trip id="270" depart="540.00" from="fh" to="ib"/>
    <trip id="271" depart="542.00" from="-cd" to="-ab"/>
    <trip id="272" depart="544.00" from="-hi" to="de"/>
    <trip id="273" depart="546.00" from="hi" to="-hi"/>
    <trip id="274" depart="548.00" from="de" to="-bc"/>
    <trip id="275" depart="550.00" from="ce" to="ce"/>
    <trip id="276" depart="552.00" from="-cd" to="fg"/>
    <trip id="277" depart="554.00" from="fh" to="ce"/>
    <trip id="278" depart="556.00" from="-de" to="ib"/>
    <trip id="279" depart="558.00" from="ef" to="-hi"/>
    <trip id="280" depart="560.00" from="-ib" to="-hi"/>
    <trip id="281" depart="562.00" from="bc" to="-hi"/>
    <trip id="282" depart="564.00" from="fh" to="fh"/>
    <trip id="283" depart="566.00" from="-cd" to="ib"/>
    <trip id="284" depart="568.00" from="ce" to="fh"/>
    <trip id="285" depart="570.00" from="de" to="-ib"/>
    <trip id="286" depart="572.00" from="de" to="ib"/>
    <trip id="287" depart="574.00" from="-fh" to="fg"/>
    <trip id="288" depart="576.00" from="cd" to="bc"/>
    <trip id="289" depart="578.00" from="-ib" to="de"/>
    <trip id="290" depart="580.00" from="-fh" to="fh"/>
    <trip id="291" depart="582.00" from="fh" to="-cd"/>
    <trip id="292" depart="584.00" from="hi" to="-ef"/>
    <trip id="293" depart="586.00" from="ab" to="ce"/>
    <trip id="294" depart="588.00" from="-hi" to="-ab"/>
    <trip id="295" depart="590.00" from="fh" to="-de"/>
    <trip id="296" depart="592.00" from="-ef" to="fg"/>
    <trip id="297" depart="594.00" from="-hi" to="hi"/>
    <trip id="298" depart="596.00" from="de" to="-fh"/>
    <trip id="299" depart="598.00" from="-bc" to="hi"/>
    <trip id="300" depart="600.00" from="-cd" to="de"/>
    <trip id="301" depart="602.00" from="ab" to="ef"/>
    <trip id="302" depart="604.00" from="ce" to="ce"/>
    <trip id="303" depart="606.00" from="ab" to="fg"/>
    <trip id="304" depart="608.00" from="-cd" to="-de"/>
    <trip id="305" depart="610.00" from="ce" to="-fh"/>
    <trip id="306" depart="612.00" from="cd" to="bc"/>
    <trip id="307" depart="614.00" from="cd" to="-ib"/>
    <trip id="308" depart="616.00" from="de" to="-hi"/>
    <trip id="309" depart="618.00" from="de" to="-fh"/>
    <trip id="310" depart="620.00" from="-fg" to="-cd"/>
    <trip id="311" depart="622.00" from="-ef" to="-cd"/>
    <trip id="312" depart="624.00" from="cd" to="ef"/>
    <trip id="313" depart="626.00" from="-de" to="-de"/>
    <trip id="314" depart="628.00" from="ab" to="de"/>
    <trip id="315" depart="630.00" from="ib" to="cd"/>
    <trip id="316" depart="632.00" from="-fh" to="-cd"/>
    <trip id="317" depart="634.00" from="-ef" to="-de"/>
    <trip id="318" depart="636.00" from="-de" to="-ab"/>
    <trip id="319" depart="638.00" from="cd" to="-fh"/>
    <trip id="320" depart="640.00" from="ib" to="cd"/>
    <trip id="321" depart="642.00" from="ce" to="-cd"/>
    <trip id="322" depart="644.00" from="hi" to="cd"/>
    <trip id="323" depart="646.00" from="hi" to="ce"/>
    <trip id="324" depart="648.00" from="ab" to="-ib"/>
    <trip id="325" depart="650.00" from="-de" to="-bc"/>
    <trip id="326" depart="652.00" from="hi" to="bc"/>
    <trip id="327" depart="654.00" from="fh" to="-hi"/>
    <trip id="328" depart="656.00" from="-cd" to="ce"/>
    <trip id="329" depart="658.00" from="-cd" to="-cd"/>
    <trip id="330" depart="660.00" from="cd" to="-fh"/>
    <trip id="331" depart="662.00" from="ib" to="-cd"/>
    <trip id="332" depart="664.00" from="de" to="ce"/>
    <trip id="333" depart="666.00" from="ef" to="-de"/>
    <trip id="334" depart="668.00" from="bc" to="-ib"/>
    <trip id="335" depart="670.00" from="-ib" to="hi"/>
    <trip id="336" depart="672.00" from="ib" to="-fh"/>
    <trip id="337" depart="674.00" from="ce" to="ce"/>
    <trip id="338" depart="676.00" from="de" to="hi"/>
    <trip id="339" depart="678.00" from="-ef" to="-de"/>
    <trip id="340" depart="680.00" from="ce" to="-de"/>
    <trip id="341" depart="682.00" from="-de" to="-bc"/>
    <trip id="342" depart="684.00" from="-bc" to="-ib"/>
    <trip id="343" depart="686.00" from="cd" to="-fh"/>
    <trip id="344" depart="688.00" from="-fg" to="de"/>
    <trip id="345" depart="690.00" from="de" to="bc"/>
    <trip id="346" depart="692.00" from="ce" to="hi"/>
    <trip id="347" depart="694.00" from="ef" to="ce"/>
    <trip id="348" depart="696.00" from="ce" to="hi"/>
    <trip id="349" depart="698.00" from="-ib" to="cd"/>
    <trip id="350" depart="700.00" from="ce" to="hi"/>
    <trip id="351" depart="702.00" from="fh" to="-bc"/>
    <trip id="352" depart="704.00" from="-de" to="-fh"/>
    <trip id="353" depart="706.00" from="de" to="ce"/>
    <trip id="354" depart="708.00" from="-fh" to="-cd"/>
    <trip id="355" depart="710.00" from="ce" to="de"/>
    <trip id="356" depart="712.00" from="hi" to="cd"/>
    <trip id="357" depart="714.00" from="ab" to="-cd"/>
    <trip id="358" depart="716.00" from="-cd" to="-ib"/>
    <trip id="359" depart="718.00" from="-hi" to="-ef"/>
    <trip id="360" depart="720.00" from="-cd" to="ib"/>
    <trip id="361" depart="722.00" from="fh" to="ce"/>
    <trip id="362" depart="724.00" from="hi" to="ib"/>
    <trip id="363" depart="726.00" from="ce" to="-fh"/>
    <trip id="364" depart="728.00" from="-cd" to="ef"/>
    <trip id="365" depart="730.00" from="ab" to="ce"/>
    <trip id="366" depart="732.00" from="hi" to="-de"/>
    <trip id="367" depart="734.00" from="cd" to="ce"/>
    <trip id="368" depart="736.00" from="ab" to="-cd"/>
    <trip id="369" depart="738.00" from="-hi" to="-hi"/>
    <trip id="370" depart="740.00" from="ce" to="hi"/>
    <trip id="371" depart="742.00" from="-hi" to="de"/>
    <trip id="372" depart="744.00" from="-fh" to="hi"/>
    <trip id="373" depart="746.00" from="ef" to="cd"/>
    <trip id="374" depart="748.00" from="ab" to="-hi"/>
    <trip id="375" depart="750.00" from="-hi" to="ib"/>
    <trip id="376" depart="752.00" from="-hi" to="cd"/>
    <trip id="377" depart="754.00" from="ib" to="de"/>
    <trip id="378" depart="756.00" from="cd" to="-ib"/>
    <trip id="379" depart="758.00" from="-de" to="-hi"/>
    <trip id="380" depart="760.00" from="de" to="ce"/>
    <trip id="381" depart="762.00" from="de" to="-de"/>
    <trip id="382" depart="764.00" from="cd" to="hi"/>
    <trip id="383" depart="766.00" from="-ib" to="de"/>
    <trip id="384" depart="768.00" from="-de" to="ib"/>
    <trip id="385" depart="770.00" from="ce" to="-ef"/>
    <trip id="386" depart="772.00" from="-de" to="cd"/>
    <trip id="387" depart="774.00" from="cd" to="-cd"/>
    <trip id="388" depart="776.00" from="ib" to="hi"/>
    <trip id="389" depart="778.00" from="ab" to="-cd"/>
    <trip id="390" depart="780.00" from="fh" to="cd"/>
    <trip id="391" depart="782.00" from="de" to="cd"/>
    <trip id="392" depart="784.00" from="-fh" to="fh"/>
    <trip id="393" depart="786.00" from="ib" to="-ef"/>
    <trip id="394" depart="788.00" from="cd" to="-hi"/>
    <trip id="395" depart="790.00" from="hi" to="cd"/>
    <trip id="396" depart="792.00" from="hi" to="hi"/>
    <trip id="397" depart="794.00" from="-fh" to="fg"/>
    <trip id="398" depart="796.00" from="-ib" to="hi"/>
    <trip id="399" depart="798.00" from="bc" to="fh"/>
</routes>
