<net xmlns:xsi="http://www.w3.org/2001/XMLSchema-instance" version="1.16" junctionCornerDetail="5" limitTurnSpeed="5.50" xsi:noNamespaceSchemaLocation="http://sumo.dlr.de/xsd/net_file.xsd">

    <location netOffset="0.00,0.00" convBoundary="-89.31,-42.26,374.26,329.57" origBoundary="-10000000000.00,-10000000000.00,10000000000.00,10000000000.00" projParameter="!" />

    <edge id=":b_0" function="internal">
        <lane id=":b_0_0" index="0" speed="11.11" length="20.82" shape="22.93,60.37 22.90,81.20" />
        <lane id=":b_0_1" index="1" speed="11.11" length="20.82" shape="19.73,60.37 19.70,81.19" />
    </edge>
    <edge id=":b_2" function="internal">
        <lane id=":b_2_0" index="0" speed="11.11" length="5.05" shape="19.73,60.37 19.01,65.37" />
    </edge>
    <edge id=":b_8" function="internal">
        <lane id=":b_8_0" index="0" speed="11.11" length="14.32" shape="19.01,65.37 18.98,65.62 16.73,69.37 12.97,71.62 7.71,72.37" />
    </edge>
    <edge id=":b_3" function="internal">
        <lane id=":b_3_0" index="0" speed="11.11" length="9.04" shape="7.71,65.97 10.17,65.62 11.93,64.57 12.98,62.82 13.33,60.37" />
    </edge>
    <edge id=":b_4" function="internal">
        <lane id=":b_4_0" index="0" speed="11.11" length="19.37" shape="7.71,69.17 12.97,69.92 16.72,72.17 18.97,75.93 19.70,81.19" />
    </edge>
    <edge id=":b_5" function="internal">
        <lane id=":b_5_0" index="0" speed="11.11" length="9.03" shape="13.30,81.17 12.96,78.72 11.91,76.97 10.17,75.92 7.71,75.57" />
    </edge>
    <edge id=":b_6" function="internal">
        <lane id=":b_6_0" index="0" speed="11.11" length="20.81" shape="13.30,81.17 13.33,60.37" />
        <lane id=":b_6_1" index="1" speed="11.11" length="20.81" shape="16.50,81.18 16.53,60.37" />
    </edge>
    <edge id=":c_0" function="internal">
        <lane id=":c_0_0" index="0" speed="11.11" length="22.54" shape="20.01,180.48 16.53,175.00 14.42,170.19 13.38,165.05 13.12,158.57" />
        <lane id=":c_0_1" index="1" speed="11.11" length="22.54" shape="22.64,178.66 19.25,173.46 17.34,169.28 16.49,164.77 16.32,158.57" />
    </edge>
    <edge id=":c_2" function="internal">
        <lane id=":c_2_0" index="0" speed="11.11" length="4.50" shape="22.64,178.66 20.78,174.57" />
    </edge>
    <edge id=":c_7" function="internal">
        <lane id=":c_7_0" index="0" speed="11.11" length="17.22" shape="20.78,174.57 20.40,173.73 21.47,170.21 25.87,168.10 33.58,167.41" />
    </edge>
    <edge id=":c_3" function="internal">
        <lane id=":c_3_0" index="0" speed="11.11" length="13.57" shape="22.72,158.59 23.39,161.04 25.43,162.79 28.83,163.85 33.59,164.21" />
    </edge>
    <edge id=":c_4" function="internal">
        <lane id=":c_4_0" index="0" speed="11.11" length="18.61" shape="22.72,158.59 23.27,163.41 24.85,166.45 27.32,169.21 30.54,173.20" />
        <lane id=":c_4_1" index="1" speed="11.11" length="18.61" shape="19.52,158.58 20.08,163.98 21.73,167.42 24.38,170.55 27.91,175.02" />
        <lane id=":c_4_2" index="2" speed="11.11" length="18.61" shape="19.52,158.58 19.64,164.37 20.34,168.35 22.07,172.01 25.28,176.84" />
    </edge>
    <edge id=":d_0" function="internal">
        <lane id=":d_0_0" index="0" speed="11.11" length="27.90" shape="140.73,323.23 134.75,328.48 128.96,330.03 123.36,327.89 117.95,322.06" />
        <lane id=":d_0_1" index="1" speed="11.11" length="21.70" shape="138.30,321.15 133.64,325.23 129.14,326.44 124.79,324.78 120.58,320.24" />
    </edge>
    <edge id=":d_2" function="internal">
        <lane id=":d_2_0" index="0" speed="11.11" length="3.10" shape="128.47,314.78 129.07,315.42 129.70,315.66 130.34,315.49 131.00,314.91" />
        <lane id=":d_2_1" index="1" speed="11.11" length="9.30" shape="125.84,316.60 127.65,318.54 129.51,319.25 131.44,318.74 133.44,316.99" />
        <lane id=":d_2_2" index="2" speed="11.11" length="15.50" shape="123.21,318.42 126.22,321.66 129.33,322.85 132.54,321.98 135.87,319.07" />
    </edge>
    <edge id=":e_0" function="internal">
        <lane id=":e_0_0" index="0" speed="11.11" length="24.04" shape="270.93,159.12 270.40,165.82 268.79,171.38 265.97,176.49 261.81,181.84" />
        <lane id=":e_0_1" index="1" speed="11.11" length="24.04" shape="267.73,159.11 267.32,165.49 265.97,170.34 263.42,174.73 259.38,179.76" />
    </edge>
    <edge id=":e_2" function="internal">
        <lane id=":e_2_0" index="0" speed="11.11" length="14.41" shape="249.48,164.64 254.66,164.30 258.35,163.26 260.58,161.52 261.33,159.08" />
        <lane id=":e_2_1" index="1" speed="11.11" length="19.46" shape="249.48,167.84 256.05,167.30 260.75,165.67 263.57,162.93 264.53,159.09" />
    </edge>
    <edge id=":e_4" function="internal">
        <lane id=":e_4_0" index="0" speed="11.11" length="20.23" shape="249.48,167.84 255.44,168.79 259.75,171.35 261.40,175.14 259.38,179.76" />
    </edge>
    <edge id=":e_5" function="internal">
        <lane id=":e_5_0" index="0" speed="11.11" length="18.98" shape="252.08,173.52 255.87,169.72 258.78,167.07 260.65,164.03 261.33,159.08" />
        <lane id=":e_5_1" index="1" speed="11.11" length="18.98" shape="254.51,175.60 258.72,171.28 261.86,168.21 263.83,164.71 264.53,159.09" />
    </edge>
    <edge id=":f_0" function="internal">
        <lane id=":f_0_0" index="0" speed="11.11" length="9.15" shape="277.08,72.88 274.57,73.23 272.77,74.28 271.69,76.03 271.32,78.48" />
    </edge>
    <edge id=":f_1" function="internal">
        <lane id=":f_1_0" index="0" speed="11.11" length="19.47" shape="277.07,69.68 271.78,68.93 268.02,66.67 265.80,62.88 265.11,57.58" />
    </edge>
    <edge id=":f_2" function="internal">
        <lane id=":f_2_0" index="0" speed="11.11" length="9.03" shape="271.51,57.66 271.83,60.12 272.86,61.88 274.60,62.93 277.06,63.28" />
    </edge>
    <edge id=":f_3" function="internal">
        <lane id=":f_3_0" index="0" speed="11.11" length="20.83" shape="271.51,57.66 271.32,78.48" />
        <lane id=":f_3_1" index="1" speed="11.11" length="20.83" shape="268.31,57.62 268.12,78.46" />
    </edge>
    <edge id=":f_5" function="internal">
        <lane id=":f_5_0" index="0" speed="11.11" length="20.88" shape="261.72,78.43 261.91,57.54" />
        <lane id=":f_5_1" index="1" speed="11.11" length="20.88" shape="264.92,78.45 265.11,57.58" />
    </edge>
    <edge id=":f_7" function="internal">
        <lane id=":f_7_0" index="0" speed="11.11" length="5.10" shape="264.92,78.45 265.67,73.40" />
    </edge>
    <edge id=":f_8" function="internal">
        <lane id=":f_8_0" index="0" speed="11.11" length="14.31" shape="265.67,73.40 265.70,73.22 267.99,69.48 271.77,67.23 277.07,66.48" />
    </edge>
    <edge id=":h_0" function="internal">
        <lane id=":h_0_0" index="0" speed="11.11" length="18.29" shape="261.50,-47.03 266.48,-46.34 270.01,-44.22 272.10,-40.67 272.74,-35.69" />
        <lane id=":h_0_1" index="1" speed="11.11" length="13.06" shape="261.51,-43.83 265.07,-43.34 267.59,-41.82 269.08,-39.29 269.54,-35.73" />
    </edge>
    <edge id=":h_2" function="internal">
        <lane id=":h_2_0" index="0" speed="11.11" length="2.61" shape="263.14,-35.81 263.05,-36.53 262.75,-37.03 262.25,-37.34 261.54,-37.43" />
        <lane id=":h_2_1" index="1" speed="11.11" length="7.84" shape="266.34,-35.77 266.07,-37.91 265.17,-39.43 263.66,-40.34 261.53,-40.63" />
    </edge>
    <edge id=":i_0" function="internal">
        <lane id=":i_0_0" index="0" speed="11.11" length="18.01" shape="13.33,-34.91 14.03,-39.80 16.12,-43.29 19.61,-45.40 24.49,-46.11" />
        <lane id=":i_0_1" index="1" speed="11.11" length="12.87" shape="16.53,-34.91 17.03,-38.40 18.52,-40.90 21.01,-42.40 24.50,-42.91" />
    </edge>
    <edge id=":i_2" function="internal">
        <lane id=":i_2_0" index="0" speed="11.11" length="2.57" shape="24.52,-36.51 23.83,-36.41 23.33,-36.11 23.03,-35.61 22.93,-34.91" />
        <lane id=":i_2_1" index="1" speed="11.11" length="7.72" shape="24.51,-39.71 22.42,-39.41 20.93,-38.51 20.03,-37.01 19.73,-34.91" />
    </edge>

    <edge id="-ab" from="b" to="a" priority="-1">
        <lane id="-ab_0" index="0" speed="11.11" length="97.02" shape="7.71,75.57 -89.31,75.57" />
        <lane id="-ab_1" index="1" speed="11.11" length="97.02" shape="7.71,72.37 -89.31,72.37" />
    </edge>
    <edge id="-bc" from="c" to="b" priority="-1">
        <lane id="-bc_0" index="0" speed="11.11" length="77.39" shape="13.12,158.57 13.30,81.17" />
        <lane id="-bc_1" index="1" speed="11.11" length="77.39" shape="16.32,158.57 16.50,81.18" />
    </edge>
    <edge id="-cd" from="d" to="c" priority="-1">
        <lane id="-cd_0" index="0" speed="11.11" length="172.15" shape="117.95,322.06 20.01,180.48" />
        <lane id="-cd_1" index="1" speed="11.11" length="172.15" shape="120.58,320.24 22.64,178.66" />
    </edge>
    <edge id="-de" from="e" to="d" priority="-1">
        <lane id="-de_0" index="0" speed="11.11" length="186.15" shape="261.81,181.84 140.73,323.23" />
        <lane id="-de_1" index="1" speed="11.11" length="186.15" shape="259.38,179.76 138.30,321.15" />
    </edge>
    <edge id="-ef" from="f" to="e" priority="-1">
        <lane id="-ef_0" index="0" speed="11.11" length="80.65" shape="271.32,78.48 270.93,159.12" />
        <lane id="-ef_1" index="1" speed="11.11" length="80.65" shape="268.12,78.46 267.73,159.11" />
    </edge>
    <edge id="-fg" from="g" to="f" priority="-1">
        <lane id="-fg_0" index="0" speed="11.11" length="97.19" shape="374.27,72.66 277.08,72.88" />
        <lane id="-fg_1" index="1" speed="11.11" length="97.19" shape="374.26,69.46 277.07,69.68" />
    </edge>
    <edge id="-fh" from="h" to="f" priority="-1">
        <lane id="-fh_0" index="0" speed="11.11" length="93.36" shape="272.74,-35.69 271.51,57.66" />
        <lane id="-fh_1" index="1" speed="11.11" length="93.36" shape="269.54,-35.73 268.31,57.62" />
    </edge>
    <edge id="-hi" from="i" to="h" priority="-1">
        <lane id="-hi_0" index="0" speed="11.11" length="237.02" shape="24.49,-46.11 261.50,-47.03" />
        <lane id="-hi_1" index="1" speed="11.11" length="237.02" shape="24.50,-42.91 261.51,-43.83" />
    </edge>
    <edge id="-ib" from="b" to="i" priority="-1">
        <lane id="-ib_0" index="0" speed="11.11" length="95.28" shape="13.33,60.37 13.33,-34.91" />
        <lane id="-ib_1" index="1" speed="11.11" length="95.28" shape="16.53,60.37 16.53,-34.91" />
    </edge>
    <edge id="ab" from="a" to="b" priority="-1">
        <lane id="ab_0" index="0" speed="11.11" length="97.02" shape="-89.31,65.97 7.71,65.97" />
        <lane id="ab_1" index="1" speed="11.11" length="97.02" shape="-89.31,69.17 7.71,69.17" />
    </edge>
    <edge id="bc" from="b" to="c" priority="-1">
        <lane id="bc_0" index="0" speed="11.11" length="77.39" shape="22.90,81.20 22.72,158.59" />
        <lane id="bc_1" index="1" speed="11.11" length="77.39" shape="19.70,81.19 19.52,158.58" />
    </edge>
    <edge id="cd" from="c" to="d" priority="-1">
        <lane id="cd_0" index="0" speed="11.11" length="172.15" shape="30.54,173.20 128.47,314.78" />
        <lane id="cd_1" index="1" speed="11.11" length="172.15" shape="27.91,175.02 125.84,316.60" />
        <lane id="cd_2" index="2" speed="11.11" length="172.15" shape="25.28,176.84 123.21,318.42" />
    </edge>
    <edge id="ce" from="c" to="e" priority="-1">
        <lane id="ce_0" index="0" speed="11.11" length="215.90" shape="33.59,164.21 249.48,164.64" />
        <lane id="ce_1" index="1" speed="11.11" length="215.90" shape="33.58,167.41 249.48,167.84" />
    </edge>
    <edge id="de" from="d" to="e" priority="-1">
        <lane id="de_0" index="0" speed="11.11" length="186.15" shape="131.00,314.91 252.08,173.52" />
        <lane id="de_1" index="1" speed="11.11" length="186.15" shape="133.44,316.99 254.51,175.60" />
        <lane id="de_2" index="2" speed="11.11" length="186.15" shape="135.87,319.07 256.94,177.68" />
    </edge>
    <edge id="ef" from="e" to="f" priority="-1">
        <lane id="ef_0" index="0" speed="11.11" length="80.65" shape="261.33,159.08 261.72,78.43" />
        <lane id="ef_1" index="1" speed="11.11" length="80.65" shape="264.53,159.09 264.92,78.45" />
    </edge>
    <edge id="fg" from="f" to="g" priority="-1">
        <lane id="fg_0" index="0" speed="11.11" length="97.19" shape="277.06,63.28 374.25,63.06" />
        <lane id="fg_1" index="1" speed="11.11" length="97.19" shape="277.07,66.48 374.26,66.26" />
    </edge>
    <edge id="fh" from="f" to="h" priority="-1">
        <lane id="fh_0" index="0" speed="11.11" length="93.36" shape="261.91,57.54 263.14,-35.81" />
        <lane id="fh_1" index="1" speed="11.11" length="93.36" shape="265.11,57.58 266.34,-35.77" />
    </edge>
    <edge id="hi" from="h" to="i" priority="-1">
        <lane id="hi_0" index="0" speed="11.11" length="237.02" shape="261.54,-37.43 24.52,-36.51" />
        <lane id="hi_1" index="1" speed="11.11" length="237.02" shape="261.53,-40.63 24.51,-39.71" />
    </edge>
    <edge id="ib" from="i" to="b" priority="-1">
        <lane id="ib_0" index="0" speed="11.11" length="95.28" shape="22.93,-34.91 22.93,60.37" />
        <lane id="ib_1" index="1" speed="11.11" length="95.28" shape="19.73,-34.91 19.73,60.37" />
    </edge>

    <tlLogic id="b" type="static" programID="0" offset="0">
        <phase duration="39" state="GGgrrGGG" />
        <phase duration="12" state="yyyrryyy" />
        <phase duration="39" state="rrrGGGrr" />
        <phase duration="6" state="rrryyyrr" />
    </tlLogic>
    <tlLogic id="c" type="static" programID="0" offset="0">
        <phase duration="82" state="GGgGGGG" />
        <phase duration="3" state="yyyyyyy" />
        <phase duration="10" state="rrrrrrr" />
    </tlLogic>
    <tlLogic id="d" type="static" programID="0" offset="0">
        <phase duration="39" state="GGGGG" />
        <phase duration="6" state="yyyyy" />
        <phase duration="39" state="GGGGG" />
        <phase duration="6" state="yyyyy" />
    </tlLogic>
    <tlLogic id="e" type="static" programID="0" offset="0">
        <phase duration="39" state="GGrrrGG" />
        <phase duration="6" state="yyrrryy" />
        <phase duration="39" state="rrGGGrr" />
        <phase duration="10" state="rryyyrr" />
    </tlLogic>
    <tlLogic id="f" type="static" programID="0" offset="0">
        <phase duration="39" state="rrGGGGGg" />
        <phase duration="6" state="rryyyyyy" />
        <phase duration="39" state="GGGrrrrr" />
        <phase duration="6" state="yyyrrrrr" />
    </tlLogic>
    <tlLogic id="h" type="static" programID="0" offset="0">
        <phase duration="39" state="GGGG" />
        <phase duration="6" state="yyyy" />
        <phase duration="39" state="GGGG" />
        <phase duration="6" state="yyyy" />
    </tlLogic>
    <tlLogic id="i" type="static" programID="0" offset="0">
        <phase duration="39" state="GGGG" />
        <phase duration="6" state="yyyy" />
        <phase duration="39" state="GGGG" />
        <phase duration="6" state="yyyy" />
    </tlLogic>

    <junction id="a" type="dead_end" x="-89.31" y="70.77" incLanes="-ab_0 -ab_1" intLanes="" shape="-89.31,70.77 -89.31,77.17 -89.31,70.77" />
    <junction id="b" type="traffic_light" x="18.13" y="70.77" incLanes="ib_0 ib_1 ab_0 ab_1 -bc_0 -bc_1" intLanes=":b_0_0 :b_0_1 :b_8_0 :b_3_0 :b_4_0 :b_5_0 :b_6_0 :b_6_1" shape="24.53,60.37 11.73,60.37 11.28,62.59 10.73,63.37 9.95,63.93 8.94,64.26 7.71,64.37 7.71,77.17 9.94,77.61 10.71,78.17 11.27,78.95 11.60,79.95 11.70,81.17 24.50,81.20">
        <request index="0" response="00000000" foes="00010000" cont="0" />
        <request index="1" response="00000000" foes="00010000" cont="0" />
        <request index="2" response="11000000" foes="11010000" cont="1" />
        <request index="3" response="11000000" foes="11000000" cont="0" />
        <request index="4" response="11000111" foes="11000111" cont="0" />
        <request index="5" response="00000000" foes="00000000" cont="0" />
        <request index="6" response="00000000" foes="00011100" cont="0" />
        <request index="7" response="00000000" foes="00011100" cont="0" />
    </junction>
    <junction id="c" type="traffic_light" x="17.89" y="168.98" incLanes="-cd_0 -cd_1 bc_0 bc_1" intLanes=":c_0_0 :c_0_1 :c_7_0 :c_3_0 :c_4_0 :c_4_1 :c_4_2" shape="18.70,181.40 31.85,172.29 31.03,170.47 31.15,169.83 31.61,169.37 32.42,169.10 33.58,169.01 33.59,162.61 30.75,162.49 28.43,162.16 26.63,161.60 25.34,160.82 24.57,159.82 24.32,158.59 11.52,158.56 11.56,163.72 11.85,167.61 12.54,170.78 13.80,173.76 15.80,177.12">
        <request index="0" response="0000000" foes="0000000" cont="0" />
        <request index="1" response="0000000" foes="0000000" cont="0" />
        <request index="2" response="1110000" foes="1110000" cont="1" />
        <request index="3" response="0000000" foes="0000000" cont="0" />
        <request index="4" response="0000000" foes="0000100" cont="0" />
        <request index="5" response="0000000" foes="0000100" cont="0" />
        <request index="6" response="0000000" foes="0000100" cont="0" />
    </junction>
    <junction id="d" type="traffic_light" x="128.98" y="329.57" incLanes="-de_0 -de_1 cd_0 cd_1 cd_2" intLanes=":d_0_0 :d_0_1 :d_2_0 :d_2_1 :d_2_2" shape="141.94,324.27 129.79,313.87 116.63,322.97 120.61,327.75 124.69,330.70 128.86,331.83 133.13,331.14 137.49,328.62">
        <request index="0" response="00000" foes="00000" cont="0" />
        <request index="1" response="00000" foes="00000" cont="0" />
        <request index="2" response="00000" foes="00000" cont="0" />
        <request index="3" response="00000" foes="00000" cont="0" />
        <request index="4" response="00000" foes="00000" cont="0" />
    </junction>
    <junction id="e" type="traffic_light" x="266.08" y="169.47" incLanes="-ef_0 -ef_1 ce_0 ce_1 de_0 de_1 de_2" intLanes=":e_0_0 :e_0_1 :e_2_0 :e_2_1 :e_4_0 :e_5_0 :e_5_1" shape="272.53,159.13 259.73,159.07 258.58,161.28 257.16,162.06 255.17,162.61 252.61,162.93 249.49,163.04 249.47,169.44 251.40,169.78 251.82,170.20 251.87,170.79 251.55,171.55 250.87,172.47 263.02,182.88 266.61,178.64 269.17,175.25 270.87,172.16 271.89,168.81 272.38,164.66">
        <request index="0" response="0000000" foes="0010000" cont="0" />
        <request index="1" response="0000000" foes="0010000" cont="0" />
        <request index="2" response="1100000" foes="1100000" cont="0" />
        <request index="3" response="1100000" foes="1100000" cont="0" />
        <request index="4" response="1100011" foes="1100011" cont="0" />
        <request index="5" response="0000000" foes="0011100" cont="0" />
        <request index="6" response="0000000" foes="0011100" cont="0" />
    </junction>
    <junction id="f" type="traffic_light" x="266.57" y="68.10" incLanes="-fg_0 -fg_1 -fh_0 -fh_1 ef_0 ef_1" intLanes=":f_0_0 :f_1_0 :f_2_0 :f_3_0 :f_3_1 :f_5_0 :f_5_1 :f_8_0" shape="277.08,74.48 277.06,61.68 274.84,61.24 274.07,60.68 273.52,59.91 273.20,58.91 273.11,57.69 260.31,57.52 260.12,78.42 272.92,78.49 273.39,76.26 273.97,75.48 274.78,74.93 275.82,74.59">
        <request index="0" response="00011000" foes="00011000" cont="0" />
        <request index="1" response="11111000" foes="11111000" cont="0" />
        <request index="2" response="00000000" foes="00000000" cont="0" />
        <request index="3" response="00000000" foes="10000011" cont="0" />
        <request index="4" response="00000000" foes="10000011" cont="0" />
        <request index="5" response="00000000" foes="00000010" cont="0" />
        <request index="6" response="00000000" foes="00000010" cont="0" />
        <request index="7" response="00011000" foes="00011010" cont="1" />
    </junction>
    <junction id="g" type="dead_end" x="374.26" y="67.86" incLanes="fg_0 fg_1" intLanes="" shape="374.26,67.86 374.25,61.46 374.26,67.86" />
    <junction id="h" type="traffic_light" x="268.03" y="-42.26" incLanes="-hi_0 -hi_1 fh_0 fh_1" intLanes=":h_0_0 :h_0_1 :h_2_0 :h_2_1" shape="261.49,-48.63 261.54,-35.83 274.34,-35.67 274.03,-39.64 272.99,-42.89 271.22,-45.42 268.71,-47.22 265.47,-48.29">
        <request index="0" response="0000" foes="0000" cont="0" />
        <request index="1" response="0000" foes="0000" cont="0" />
        <request index="2" response="0000" foes="0000" cont="0" />
        <request index="3" response="0000" foes="0000" cont="0" />
    </junction>
    <junction id="i" type="traffic_light" x="18.13" y="-41.29" incLanes="-ib_0 -ib_1 hi_0 hi_1" intLanes=":i_0_0 :i_0_1 :i_2_0 :i_2_1" shape="11.73,-34.91 24.53,-34.91 24.48,-47.71 20.58,-47.35 17.40,-46.27 14.92,-44.49 13.15,-42.00 12.08,-38.81">
        <request index="0" response="0000" foes="0000" cont="0" />
        <request index="1" response="0000" foes="0000" cont="0" />
        <request index="2" response="0000" foes="0000" cont="0" />
        <request index="3" response="0000" foes="0000" cont="0" />
    </junction>

    <junction id=":b_8_0" type="internal" x="19.01" y="65.37" incLanes=":b_2_0 -bc_0 -bc_1" intLanes=":b_4_0 :b_6_0 :b_6_1" />
    <junction id=":c_7_0" type="internal" x="20.78" y="174.57" incLanes=":c_2_0 bc_0 bc_1" intLanes=":c_4_0 :c_4_1 :c_4_2" />
    <junction id=":f_8_0" type="internal" x="265.67" y="73.40" incLanes=":f_7_0 -fh_0 -fh_1" intLanes=":f_1_0 :f_3_0 :f_3_1" />

    <connection from="-bc" to="-ab" fromLane="0" toLane="0" via=":b_5_0" tl="b" linkIndex="5" dir="r" state="O" />
    <connection from="-bc" to="-ib" fromLane="0" toLane="0" via=":b_6_0" tl="b" linkIndex="6" dir="s" state="O" />
    <connection from="-bc" to="-ib" fromLane="1" toLane="1" via=":b_6_1" tl="b" linkIndex="7" dir="s" state="O" />
    <connection from="-cd" to="-bc" fromLane="0" toLane="0" via=":c_0_0" tl="c" linkIndex="0" dir="s" state="O" />
    <connection from="-cd" to="-bc" fromLane="1" toLane="1" via=":c_0_1" tl="c" linkIndex="1" dir="s" state="O" />
    <connection from="-cd" to="ce" fromLane="1" toLane="1" via=":c_2_0" tl="c" linkIndex="2" dir="l" state="o" />
    <connection from="-de" to="-cd" fromLane="0" toLane="0" via=":d_0_0" tl="d" linkIndex="0" dir="l" state="O" />
    <connection from="-de" to="-cd" fromLane="1" toLane="1" via=":d_0_1" tl="d" linkIndex="1" dir="l" state="O" />
    <connection from="-ef" to="-de" fromLane="0" toLane="0" via=":e_0_0" tl="e" linkIndex="0" dir="s" state="O" />
    <connection from="-ef" to="-de" fromLane="1" toLane="1" via=":e_0_1" tl="e" linkIndex="1" dir="s" state="O" />
    <connection from="-fg" to="-ef" fromLane="0" toLane="0" via=":f_0_0" tl="f" linkIndex="0" dir="r" state="o" />
    <connection from="-fg" to="fh" fromLane="1" toLane="1" via=":f_1_0" tl="f" linkIndex="1" dir="l" state="o" />
    <connection from="-fh" to="fg" fromLane="0" toLane="0" via=":f_2_0" tl="f" linkIndex="2" dir="r" state="O" />
    <connection from="-fh" to="-ef" fromLane="0" toLane="0" via=":f_3_0" tl="f" linkIndex="3" dir="s" state="O" />
    <connection from="-fh" to="-ef" fromLane="1" toLane="1" via=":f_3_1" tl="f" linkIndex="4" dir="s" state="O" />
    <connection from="-hi" to="-fh" fromLane="0" toLane="0" via=":h_0_0" tl="h" linkIndex="0" dir="l" state="O" />
    <connection from="-hi" to="-fh" fromLane="1" toLane="1" via=":h_0_1" tl="h" linkIndex="1" dir="l" state="O" />
    <connection from="-ib" to="-hi" fromLane="0" toLane="0" via=":i_0_0" tl="i" linkIndex="0" dir="l" state="O" />
    <connection from="-ib" to="-hi" fromLane="1" toLane="1" via=":i_0_1" tl="i" linkIndex="1" dir="l" state="O" />
    <connection from="ab" to="-ib" fromLane="0" toLane="0" via=":b_3_0" tl="b" linkIndex="3" dir="r" state="o" />
    <connection from="ab" to="bc" fromLane="1" toLane="1" via=":b_4_0" tl="b" linkIndex="4" dir="l" state="o" />
    <connection from="bc" to="ce" fromLane="0" toLane="0" via=":c_3_0" tl="c" linkIndex="3" dir="r" state="O" />
    <connection from="bc" to="cd" fromLane="0" toLane="0" via=":c_4_0" tl="c" linkIndex="4" dir="s" state="O" />
    <connection from="bc" to="cd" fromLane="1" toLane="1" via=":c_4_1" tl="c" linkIndex="5" dir="s" state="O" />
    <connection from="bc" to="cd" fromLane="1" toLane="2" via=":c_4_2" tl="c" linkIndex="6" dir="s" state="O" />
    <connection from="cd" to="de" fromLane="0" toLane="0" via=":d_2_0" tl="d" linkIndex="2" dir="r" state="O" />
    <connection from="cd" to="de" fromLane="1" toLane="1" via=":d_2_1" tl="d" linkIndex="3" dir="r" state="O" />
    <connection from="cd" to="de" fromLane="2" toLane="2" via=":d_2_2" tl="d" linkIndex="4" dir="r" state="O" />
    <connection from="ce" to="ef" fromLane="0" toLane="0" via=":e_2_0" tl="e" linkIndex="2" dir="r" state="o" />
    <connection from="ce" to="ef" fromLane="1" toLane="1" via=":e_2_1" tl="e" linkIndex="3" dir="r" state="o" />
    <connection from="ce" to="-de" fromLane="1" toLane="1" via=":e_4_0" tl="e" linkIndex="4" dir="l" state="o" />
    <connection from="de" to="ef" fromLane="0" toLane="0" via=":e_5_0" tl="e" linkIndex="5" dir="s" state="O" />
    <connection from="de" to="ef" fromLane="1" toLane="1" via=":e_5_1" tl="e" linkIndex="6" dir="s" state="O" />
    <connection from="ef" to="fh" fromLane="0" toLane="0" via=":f_5_0" tl="f" linkIndex="5" dir="s" state="O" />
    <connection from="ef" to="fh" fromLane="1" toLane="1" via=":f_5_1" tl="f" linkIndex="6" dir="s" state="O" />
    <connection from="ef" to="fg" fromLane="1" toLane="1" via=":f_7_0" tl="f" linkIndex="7" dir="l" state="o" />
    <connection from="fh" to="hi" fromLane="0" toLane="0" via=":h_2_0" tl="h" linkIndex="2" dir="r" state="O" />
    <connection from="fh" to="hi" fromLane="1" toLane="1" via=":h_2_1" tl="h" linkIndex="3" dir="r" state="O" />
    <connection from="hi" to="ib" fromLane="0" toLane="0" via=":i_2_0" tl="i" linkIndex="2" dir="r" state="O" />
    <connection from="hi" to="ib" fromLane="1" toLane="1" via=":i_2_1" tl="i" linkIndex="3" dir="r" state="O" />
    <connection from="ib" to="bc" fromLane="0" toLane="0" via=":b_0_0" tl="b" linkIndex="0" dir="s" state="O" />
    <connection from="ib" to="bc" fromLane="1" toLane="1" via=":b_0_1" tl="b" linkIndex="1" dir="s" state="O" />
    <connection from="ib" to="-ab" fromLane="1" toLane="1" via=":b_2_0" tl="b" linkIndex="2" dir="l" state="o" />

    <connection from=":b_0" to="bc" fromLane="0" toLane="0" dir="s" state="M" />
    <connection from=":b_0" to="bc" fromLane="1" toLane="1" dir="s" state="M" />
    <connection from=":b_2" to="-ab" fromLane="0" toLane="1" via=":b_8_0" dir="l" state="m" />
    <connection from=":b_8" to="-ab" fromLane="0" toLane="1" dir="l" state="M" />
    <connection from=":b_3" to="-ib" fromLane="0" toLane="0" dir="r" state="M" />
    <connection from=":b_4" to="bc" fromLane="0" toLane="1" dir="l" state="M" />
    <connection from=":b_5" to="-ab" fromLane="0" toLane="0" dir="r" state="M" />
    <connection from=":b_6" to="-ib" fromLane="0" toLane="0" dir="s" state="M" />
    <connection from=":b_6" to="-ib" fromLane="1" toLane="1" dir="s" state="M" />
    <connection from=":c_0" to="-bc" fromLane="0" toLane="0" dir="s" state="M" />
    <connection from=":c_0" to="-bc" fromLane="1" toLane="1" dir="s" state="M" />
    <connection from=":c_2" to="ce" fromLane="0" toLane="1" via=":c_7_0" dir="l" state="m" />
    <connection from=":c_7" to="ce" fromLane="0" toLane="1" dir="l" state="M" />
    <connection from=":c_3" to="ce" fromLane="0" toLane="0" dir="r" state="M" />
    <connection from=":c_4" to="cd" fromLane="0" toLane="0" dir="s" state="M" />
    <connection from=":c_4" to="cd" fromLane="1" toLane="1" dir="s" state="M" />
    <connection from=":c_4" to="cd" fromLane="2" toLane="2" dir="s" state="M" />
    <connection from=":d_0" to="-cd" fromLane="0" toLane="0" dir="l" state="M" />
    <connection from=":d_0" to="-cd" fromLane="1" toLane="1" dir="l" state="M" />
    <connection from=":d_2" to="de" fromLane="0" toLane="0" dir="r" state="M" />
    <connection from=":d_2" to="de" fromLane="1" toLane="1" dir="r" state="M" />
    <connection from=":d_2" to="de" fromLane="2" toLane="2" dir="r" state="M" />
    <connection from=":e_0" to="-de" fromLane="0" toLane="0" dir="s" state="M" />
    <connection from=":e_0" to="-de" fromLane="1" toLane="1" dir="s" state="M" />
    <connection from=":e_2" to="ef" fromLane="0" toLane="0" dir="r" state="M" />
    <connection from=":e_2" to="ef" fromLane="1" toLane="1" dir="r" state="M" />
    <connection from=":e_4" to="-de" fromLane="0" toLane="1" dir="l" state="M" />
    <connection from=":e_5" to="ef" fromLane="0" toLane="0" dir="s" state="M" />
    <connection from=":e_5" to="ef" fromLane="1" toLane="1" dir="s" state="M" />
    <connection from=":f_0" to="-ef" fromLane="0" toLane="0" dir="r" state="M" />
    <connection from=":f_1" to="fh" fromLane="0" toLane="1" dir="l" state="M" />
    <connection from=":f_2" to="fg" fromLane="0" toLane="0" dir="r" state="M" />
    <connection from=":f_3" to="-ef" fromLane="0" toLane="0" dir="s" state="M" />
    <connection from=":f_3" to="-ef" fromLane="1" toLane="1" dir="s" state="M" />
    <connection from=":f_5" to="fh" fromLane="0" toLane="0" dir="s" state="M" />
    <connection from=":f_5" to="fh" fromLane="1" toLane="1" dir="s" state="M" />
    <connection from=":f_7" to="fg" fromLane="0" toLane="1" via=":f_8_0" dir="l" state="m" />
    <connection from=":f_8" to="fg" fromLane="0" toLane="1" dir="l" state="M" />
    <connection from=":h_0" to="-fh" fromLane="0" toLane="0" dir="l" state="M" />
    <connection from=":h_0" to="-fh" fromLane="1" toLane="1" dir="l" state="M" />
    <connection from=":h_2" to="hi" fromLane="0" toLane="0" dir="r" state="M" />
    <connection from=":h_2" to="hi" fromLane="1" toLane="1" dir="r" state="M" />
    <connection from=":i_0" to="-hi" fromLane="0" toLane="0" dir="l" state="M" />
    <connection from=":i_0" to="-hi" fromLane="1" toLane="1" dir="l" state="M" />
    <connection from=":i_2" to="ib" fromLane="0" toLane="0" dir="r" state="M" />
    <connection from=":i_2" to="ib" fromLane="1" toLane="1" dir="r" state="M" />

</net>