<configuration>
    <input>
        <net-file value="custom_70.net.xml"/>
        <route-files value="custom_70.routes.xml"/>
    </input>
    <time>
        <begin value="0"/>
        <end value="1000"/>
    </time>
</configuration>